
.subckt DESIGN_icn_ckt 1 2 
* Display all elements first 
RidlPart_39 1 3 1.000000e+03
VidlPart_47 3 0 0.000000e+00
TidlPart_32 1 0 2 0 z0=50 Td=4e-09 R=1e-5 
.ends DESIGN_icn_ckt
