
.subckt DESIGN.IN1.1_stim 5 4 3
v_enable_off 5 3 0
v_input_inactive 4 3 1
.ends DESIGN.IN1.1_stim

*** Printing Custom Stimuli ***

.subckt DESIGN.IO1.1_stim 5 4 3
v_5 5 3 1 (DC ..)

v_4 4 3  PWL (0 1 9.99953e-09 1.0 1.08329e-08 0 3.99985e-08 0 4.08318e-08 1.0 4.99991e-08 1.0 5.08324e-08 0 6.00009e-08 0 6.08342e-08 1.0 6.99991e-08 1.0 7.08325e-08 0 8.00002e-08 0 8.08335e-08 1.0 9.00004e-08 1.0 9.08337e-08 0 1e-07 0 1.00834e-07 1.0 1.10001e-07 1.0 1.10834e-07 0 1.29999e-07 0 1.30832e-07 1.0 1.60003e-07 1.0 1.60836e-07 0 1.69998e-07 0 1.70831e-07 1.0 1.80002e-07 1.0 1.80835e-07 0 1.89997e-07 0 1.9083e-07 1.0 1.99997e-07 1.0 2.00831e-07 0 2.09996e-07 0 2.10829e-07 1.0 2.2e-07 1.0 2.20833e-07 0 2.30002e-07 0 2.30835e-07 1.0 2.40002e-07 1.0 2.40835e-07 0 2.50002e-07 0 2.50835e-07 1.0 2.59998e-07 1.0 2.60832e-07 0 2.7e-07 0 2.70834e-07 1.0 2.80001e-07 1.0 2.80834e-07 0 2.90001e-07 0 2.90835e-07 1.0 2.99998e-07 1.0 3.00831e-07 0 3.1e-07 0 3.10833e-07 1.0 3.19999e-07 1.0 3.20832e-07 0 3.29998e-07 0 3.30831e-07 1.0 3.4e-07 1.0 3.40833e-07 0 3.59997e-07 0 3.6083e-07 1.0 3.70001e-07 1.0 3.70834e-07 0 3.80001e-07 0 3.80834e-07 1.0 3.89998e-07 1.0 3.90831e-07 0 3.99999e-07 0 4.00832e-07 1.0 4.09999e-07 1.0 4.10832e-07 0 4.20001e-07 0 4.20835e-07 1.0 4.29999e-07 1.0 4.30832e-07 0 4.39999e-07 0 4.40833e-07 1.0 4.49999e-07 1.0 4.50833e-07 0 4.6e-07 0 4.60834e-07 1.0 4.69999e-07 1.0 4.70832e-07 0 4.89999e-07 0 4.90833e-07 1.0 5e-07 1.0 5.00833e-07 0 5.10002e-07 0 5.10835e-07 1.0 5.19998e-07 1.0 5.20832e-07 0 5.30002e-07 0 5.30835e-07 1.0 5.4e-07 1.0 5.40833e-07 0 5.6e-07 0 5.60833e-07 1.0 5.69998e-07 1.0 5.70831e-07 0 5.8e-07 0 5.80833e-07 1.0 5.90001e-07 1.0 5.90834e-07 0 6e-07 0.0 ..)

.ends DESIGN.IO1.1_stim
